<?xml version='1.0' encoding='utf-8'?>
<ns0:feed xmlns:ns0="http://www.w3.org/2005/Atom" xml:lang="en">
  <ns0:id>https://aazw.github.io/github-trending-feeds/feeds/fortran/daily.atom</ns0:id>
  <ns0:title>GitHub Trending - fortran (daily)</ns0:title>
  <ns0:link href="https://aazw.github.io/github-trending-feeds/feeds/fortran/daily.atom" rel="self"/>
  <ns0:link href="https://aazw.github.io/github-trending-feeds/" rel="alternate"/>
  <ns0:icon>https://github.githubassets.com/favicons/favicon.svg</ns0:icon>
  <ns0:updated>2026-03-29T00:00:00</ns0:updated>
  <ns0:author>
    <ns0:name>aazw</ns0:name>
  </ns0:author>
  <ns0:entry>
    <ns0:id>urn:github:GEOS-ESM:GOCART:1774742400</ns0:id>
    <ns0:title>GEOS-ESM/GOCART</ns0:title>
    <ns0:link href="https://github.com/GEOS-ESM/GOCART"/>
    <ns0:updated>2026-03-29T00:00:00</ns0:updated>
    <ns0:content type="html">&lt;div&gt;
&lt;div&gt;&lt;strong&gt;URL:&lt;/strong&gt; &lt;a href="https://github.com/GEOS-ESM/GOCART"&gt;https://github.com/GEOS-ESM/GOCART&lt;/a&gt;&lt;/div&gt;
&lt;div&gt;&lt;strong&gt;Language:&lt;/strong&gt; fortran&lt;/div&gt;
&lt;hr&gt;
&lt;div&gt;GOCART Aerosol model including process library and framework interfaces (MAPL, NUOPC, and CCPP)&lt;/div&gt;
&lt;/div&gt;</ns0:content>
  </ns0:entry>
  <ns0:entry>
    <ns0:id>urn:github:JuliaPackaging:Yggdrasil:1774742400</ns0:id>
    <ns0:title>JuliaPackaging/Yggdrasil</ns0:title>
    <ns0:link href="https://github.com/JuliaPackaging/Yggdrasil"/>
    <ns0:updated>2026-03-29T00:00:00</ns0:updated>
    <ns0:content type="html">&lt;div&gt;
&lt;div&gt;&lt;strong&gt;URL:&lt;/strong&gt; &lt;a href="https://github.com/JuliaPackaging/Yggdrasil"&gt;https://github.com/JuliaPackaging/Yggdrasil&lt;/a&gt;&lt;/div&gt;
&lt;div&gt;&lt;strong&gt;Language:&lt;/strong&gt; fortran&lt;/div&gt;
&lt;hr&gt;
&lt;div&gt;Collection of builder repositories for BinaryBuilder.jl&lt;/div&gt;
&lt;/div&gt;</ns0:content>
  </ns0:entry>
  <ns0:entry>
    <ns0:id>urn:github:MODFLOW-ORG:modflow6:1774742400</ns0:id>
    <ns0:title>MODFLOW-ORG/modflow6</ns0:title>
    <ns0:link href="https://github.com/MODFLOW-ORG/modflow6"/>
    <ns0:updated>2026-03-29T00:00:00</ns0:updated>
    <ns0:content type="html">&lt;div&gt;
&lt;div&gt;&lt;strong&gt;URL:&lt;/strong&gt; &lt;a href="https://github.com/MODFLOW-ORG/modflow6"&gt;https://github.com/MODFLOW-ORG/modflow6&lt;/a&gt;&lt;/div&gt;
&lt;div&gt;&lt;strong&gt;Language:&lt;/strong&gt; fortran&lt;/div&gt;
&lt;hr&gt;
&lt;div&gt;USGS Modular Hydrologic Model&lt;/div&gt;
&lt;/div&gt;</ns0:content>
  </ns0:entry>
  <ns0:entry>
    <ns0:id>urn:github:MPAS-Dev:MPAS-Model:1774742400</ns0:id>
    <ns0:title>MPAS-Dev/MPAS-Model</ns0:title>
    <ns0:link href="https://github.com/MPAS-Dev/MPAS-Model"/>
    <ns0:updated>2026-03-29T00:00:00</ns0:updated>
    <ns0:content type="html">&lt;div&gt;
&lt;div&gt;&lt;strong&gt;URL:&lt;/strong&gt; &lt;a href="https://github.com/MPAS-Dev/MPAS-Model"&gt;https://github.com/MPAS-Dev/MPAS-Model&lt;/a&gt;&lt;/div&gt;
&lt;div&gt;&lt;strong&gt;Language:&lt;/strong&gt; fortran&lt;/div&gt;
&lt;hr&gt;
&lt;div&gt;Repository for MPAS models and shared framework releases.&lt;/div&gt;
&lt;/div&gt;</ns0:content>
  </ns0:entry>
  <ns0:entry>
    <ns0:id>urn:github:MetOffice:lfric_apps:1774742400</ns0:id>
    <ns0:title>MetOffice/lfric_apps</ns0:title>
    <ns0:link href="https://github.com/MetOffice/lfric_apps"/>
    <ns0:updated>2026-03-29T00:00:00</ns0:updated>
    <ns0:content type="html">&lt;div&gt;
&lt;div&gt;&lt;strong&gt;URL:&lt;/strong&gt; &lt;a href="https://github.com/MetOffice/lfric_apps"&gt;https://github.com/MetOffice/lfric_apps&lt;/a&gt;&lt;/div&gt;
&lt;div&gt;&lt;strong&gt;Language:&lt;/strong&gt; fortran&lt;/div&gt;
&lt;hr&gt;
&lt;div&gt;LFRic Applications&lt;/div&gt;
&lt;/div&gt;</ns0:content>
  </ns0:entry>
  <ns0:entry>
    <ns0:id>urn:github:MetOffice:lfric_core:1774742400</ns0:id>
    <ns0:title>MetOffice/lfric_core</ns0:title>
    <ns0:link href="https://github.com/MetOffice/lfric_core"/>
    <ns0:updated>2026-03-29T00:00:00</ns0:updated>
    <ns0:content type="html">&lt;div&gt;
&lt;div&gt;&lt;strong&gt;URL:&lt;/strong&gt; &lt;a href="https://github.com/MetOffice/lfric_core"&gt;https://github.com/MetOffice/lfric_core&lt;/a&gt;&lt;/div&gt;
&lt;div&gt;&lt;strong&gt;Language:&lt;/strong&gt; fortran&lt;/div&gt;
&lt;hr&gt;
&lt;div&gt;LFRic Infrastructure&lt;/div&gt;
&lt;/div&gt;</ns0:content>
  </ns0:entry>
  <ns0:entry>
    <ns0:id>urn:github:Reference-LAPACK:lapack:1774742400</ns0:id>
    <ns0:title>Reference-LAPACK/lapack</ns0:title>
    <ns0:link href="https://github.com/Reference-LAPACK/lapack"/>
    <ns0:updated>2026-03-29T00:00:00</ns0:updated>
    <ns0:content type="html">&lt;div&gt;
&lt;div&gt;&lt;strong&gt;URL:&lt;/strong&gt; &lt;a href="https://github.com/Reference-LAPACK/lapack"&gt;https://github.com/Reference-LAPACK/lapack&lt;/a&gt;&lt;/div&gt;
&lt;div&gt;&lt;strong&gt;Language:&lt;/strong&gt; fortran&lt;/div&gt;
&lt;hr&gt;
&lt;div&gt;LAPACK development repository&lt;/div&gt;
&lt;/div&gt;</ns0:content>
  </ns0:entry>
  <ns0:entry>
    <ns0:id>urn:github:ecmwf:fckit:1774742400</ns0:id>
    <ns0:title>ecmwf/fckit</ns0:title>
    <ns0:link href="https://github.com/ecmwf/fckit"/>
    <ns0:updated>2026-03-29T00:00:00</ns0:updated>
    <ns0:content type="html">&lt;div&gt;
&lt;div&gt;&lt;strong&gt;URL:&lt;/strong&gt; &lt;a href="https://github.com/ecmwf/fckit"&gt;https://github.com/ecmwf/fckit&lt;/a&gt;&lt;/div&gt;
&lt;div&gt;&lt;strong&gt;Language:&lt;/strong&gt; fortran&lt;/div&gt;
&lt;hr&gt;
&lt;div&gt;A Fortran toolkit for interoperating Fortran with C/C++&lt;/div&gt;
&lt;/div&gt;</ns0:content>
  </ns0:entry>
</ns0:feed>