<?xml version='1.0' encoding='utf-8'?>
<feed xmlns="http://www.w3.org/2005/Atom" xml:lang="en">
  <id>https://aazw.github.io/github-trending-feeds/feeds/fortran/daily.atom</id>
  <title>GitHub Trending - fortran (daily)</title>
  <link href="https://aazw.github.io/github-trending-feeds/feeds/fortran/daily.atom" rel="self" />
  <link href="https://aazw.github.io/github-trending-feeds/" rel="alternate" />
  <icon>https://github.githubassets.com/favicons/favicon.svg</icon>
  <updated>2025-05-10T00:00:00</updated>
  <author>
    <name>aazw</name>
  </author>
  <entry>
    <id>https://github.com/CFMIP/COSPv2.0#1746835200</id>
    <title>https://github.com/CFMIP/COSPv2.0</title>
    <link href="https://github.com/CFMIP/COSPv2.0" />
    <updated>2025-05-10T00:00:00</updated>
    <content type="text">COSP - The CFMIP (Cloud Feedbacks Model Intercomparison Project) Observation Simulator Package</content>
  </entry>
  <entry>
    <id>https://github.com/Goddard-Fortran-Ecosystem/gFTL#1746835200</id>
    <title>https://github.com/Goddard-Fortran-Ecosystem/gFTL</title>
    <link href="https://github.com/Goddard-Fortran-Ecosystem/gFTL" />
    <updated>2025-05-10T00:00:00</updated>
    <content type="text">Software containers for Fortran</content>
  </entry>
  <entry>
    <id>https://github.com/MPAS-Dev/MPAS-Model#1746835200</id>
    <title>https://github.com/MPAS-Dev/MPAS-Model</title>
    <link href="https://github.com/MPAS-Dev/MPAS-Model" />
    <updated>2025-05-10T00:00:00</updated>
    <content type="text">Repository for MPAS models and shared framework releases.</content>
  </entry>
  <entry>
    <id>https://github.com/OpenFAST/openfast#1746835200</id>
    <title>https://github.com/OpenFAST/openfast</title>
    <link href="https://github.com/OpenFAST/openfast" />
    <updated>2025-05-10T00:00:00</updated>
    <content type="text">Main repository for the NREL-supported OpenFAST whole-turbine and FAST.Farm wind farm simulation codes.</content>
  </entry>
  <entry>
    <id>https://github.com/cp2k/cp2k#1746835200</id>
    <title>https://github.com/cp2k/cp2k</title>
    <link href="https://github.com/cp2k/cp2k" />
    <updated>2025-05-10T00:00:00</updated>
    <content type="text">Quantum chemistry and solid state physics software package</content>
  </entry>
  <entry>
    <id>https://github.com/earth-system-radiation/rte-rrtmgp#1746835200</id>
    <title>https://github.com/earth-system-radiation/rte-rrtmgp</title>
    <link href="https://github.com/earth-system-radiation/rte-rrtmgp" />
    <updated>2025-05-10T00:00:00</updated>
    <content type="text">RTE+RRTMGP is a set of codes for computing radiative fluxes in planetary atmospheres.</content>
  </entry>
  <entry>
    <id>https://github.com/esmf-org/esmf#1746835200</id>
    <title>https://github.com/esmf-org/esmf</title>
    <link href="https://github.com/esmf-org/esmf" />
    <updated>2025-05-10T00:00:00</updated>
    <content type="text">The Earth System Modeling Framework (ESMF) is a suite of software tools for developing high-performance, multi-component Earth science modeling applications.</content>
  </entry>
  <entry>
    <id>https://github.com/firemodels/fds#1746835200</id>
    <title>https://github.com/firemodels/fds</title>
    <link href="https://github.com/firemodels/fds" />
    <updated>2025-05-10T00:00:00</updated>
    <content type="text">Fire Dynamics Simulator</content>
  </entry>
  <entry>
    <id>https://github.com/grimme-lab/xtb#1746835200</id>
    <title>https://github.com/grimme-lab/xtb</title>
    <link href="https://github.com/grimme-lab/xtb" />
    <updated>2025-05-10T00:00:00</updated>
    <content type="text">Semiempirical Extended Tight-Binding Program Package</content>
  </entry>
  <entry>
    <id>https://github.com/njoy/NJOY2016#1746835200</id>
    <title>https://github.com/njoy/NJOY2016</title>
    <link href="https://github.com/njoy/NJOY2016" />
    <updated>2025-05-10T00:00:00</updated>
    <content type="text">Nuclear data processing with legacy NJOY</content>
  </entry>
  <entry>
    <id>https://github.com/wrf-model/WRF#1746835200</id>
    <title>https://github.com/wrf-model/WRF</title>
    <link href="https://github.com/wrf-model/WRF" />
    <updated>2025-05-10T00:00:00</updated>
    <content type="text">The official repository for the Weather Research and Forecasting (WRF) model</content>
  </entry>
</feed>