<?xml version='1.0' encoding='utf-8'?>
<feed xmlns="http://www.w3.org/2005/Atom" xml:lang="en">
  <id>https://aazw.github.io/github-trending-feeds/feeds/fortran/daily.atom</id>
  <title>GitHub Trending - fortran (daily)</title>
  <link href="https://aazw.github.io/github-trending-feeds/feeds/fortran/daily.atom" rel="self" />
  <link href="https://aazw.github.io/github-trending-feeds/" rel="alternate" />
  <icon>https://github.githubassets.com/favicons/favicon.svg</icon>
  <updated>2025-03-15T00:00:00</updated>
  <author>
    <name>aazw</name>
  </author>
  <entry>
    <id>https://github.com/CICE-Consortium/Icepack#1741996800</id>
    <title>https://github.com/CICE-Consortium/Icepack</title>
    <link href="https://github.com/CICE-Consortium/Icepack" />
    <updated>2025-03-15T00:00:00</updated>
    <content type="text">Development repository for sea-ice column physics</content>
  </entry>
  <entry>
    <id>https://github.com/GEOS-ESM/MAPL#1741996800</id>
    <title>https://github.com/GEOS-ESM/MAPL</title>
    <link href="https://github.com/GEOS-ESM/MAPL" />
    <updated>2025-03-15T00:00:00</updated>
    <content type="text">MAPL is a foundation layer of the GEOS architecture, whose original purpose is to supplement the Earth System Modeling Framework (ESMF)</content>
  </entry>
  <entry>
    <id>https://github.com/MCSclimate/MCT#1741996800</id>
    <title>https://github.com/MCSclimate/MCT</title>
    <link href="https://github.com/MCSclimate/MCT" />
    <updated>2025-03-15T00:00:00</updated>
    <content type="text">Model Coupling Tookit</content>
  </entry>
  <entry>
    <id>https://github.com/NGEET/fates#1741996800</id>
    <title>https://github.com/NGEET/fates</title>
    <link href="https://github.com/NGEET/fates" />
    <updated>2025-03-15T00:00:00</updated>
    <content type="text">repository for the Functionally Assembled Terrestrial Ecosystem Simulator (FATES)</content>
  </entry>
  <entry>
    <id>https://github.com/OpenFAST/openfast#1741996800</id>
    <title>https://github.com/OpenFAST/openfast</title>
    <link href="https://github.com/OpenFAST/openfast" />
    <updated>2025-03-15T00:00:00</updated>
    <content type="text">Main repository for the NREL-supported OpenFAST whole-turbine and FAST.Farm wind farm simulation codes.</content>
  </entry>
  <entry>
    <id>https://github.com/OpenRadioss/OpenRadioss#1741996800</id>
    <title>https://github.com/OpenRadioss/OpenRadioss</title>
    <link href="https://github.com/OpenRadioss/OpenRadioss" />
    <updated>2025-03-15T00:00:00</updated>
    <content type="text">OpenRadioss is a powerful, industry-proven finite element solver for dynamic event analysis</content>
  </entry>
  <entry>
    <id>https://github.com/cp2k/cp2k#1741996800</id>
    <title>https://github.com/cp2k/cp2k</title>
    <link href="https://github.com/cp2k/cp2k" />
    <updated>2025-03-15T00:00:00</updated>
    <content type="text">Quantum chemistry and solid state physics software package</content>
  </entry>
  <entry>
    <id>https://github.com/earth-system-radiation/rte-rrtmgp#1741996800</id>
    <title>https://github.com/earth-system-radiation/rte-rrtmgp</title>
    <link href="https://github.com/earth-system-radiation/rte-rrtmgp" />
    <updated>2025-03-15T00:00:00</updated>
    <content type="text">RTE+RRTMGP is a set of codes for computing radiative fluxes in planetary atmospheres.</content>
  </entry>
  <entry>
    <id>https://github.com/ecmwf/fckit#1741996800</id>
    <title>https://github.com/ecmwf/fckit</title>
    <link href="https://github.com/ecmwf/fckit" />
    <updated>2025-03-15T00:00:00</updated>
    <content type="text">A Fortran toolkit for interoperating Fortran with C/C++</content>
  </entry>
  <entry>
    <id>https://github.com/esmf-org/esmf#1741996800</id>
    <title>https://github.com/esmf-org/esmf</title>
    <link href="https://github.com/esmf-org/esmf" />
    <updated>2025-03-15T00:00:00</updated>
    <content type="text">The Earth System Modeling Framework (ESMF) is a suite of software tools for developing high-performance, multi-component Earth science modeling applications.</content>
  </entry>
  <entry>
    <id>https://github.com/firemodels/fds#1741996800</id>
    <title>https://github.com/firemodels/fds</title>
    <link href="https://github.com/firemodels/fds" />
    <updated>2025-03-15T00:00:00</updated>
    <content type="text">Fire Dynamics Simulator</content>
  </entry>
  <entry>
    <id>https://github.com/jacobwilliams/json-fortran#1741996800</id>
    <title>https://github.com/jacobwilliams/json-fortran</title>
    <link href="https://github.com/jacobwilliams/json-fortran" />
    <updated>2025-03-15T00:00:00</updated>
    <content type="text">A Modern Fortran JSON API</content>
  </entry>
  <entry>
    <id>https://github.com/wrf-model/WRF#1741996800</id>
    <title>https://github.com/wrf-model/WRF</title>
    <link href="https://github.com/wrf-model/WRF" />
    <updated>2025-03-15T00:00:00</updated>
    <content type="text">The official repository for the Weather Research and Forecasting (WRF) model</content>
  </entry>
</feed>