<?xml version='1.0' encoding='utf-8'?>
<feed xmlns="http://www.w3.org/2005/Atom" xml:lang="en">
  <id>https://aazw.github.io/github-trending-feeds/feeds/fortran/daily.atom</id>
  <title>GitHub Trending - fortran (daily)</title>
  <link href="https://aazw.github.io/github-trending-feeds/feeds/fortran/daily.atom" rel="self" />
  <link href="https://aazw.github.io/github-trending-feeds/" rel="alternate" />
  <icon>https://github.githubassets.com/favicons/favicon.svg</icon>
  <updated>2025-04-01T00:00:00</updated>
  <author>
    <name>aazw</name>
  </author>
  <entry>
    <id>https://github.com/CFMIP/COSPv2.0#1743465600</id>
    <title>https://github.com/CFMIP/COSPv2.0</title>
    <link href="https://github.com/CFMIP/COSPv2.0" />
    <updated>2025-04-01T00:00:00</updated>
    <content type="text">COSP - The CFMIP (Cloud Feedbacks Model Intercomparison Project) Observation Simulator Package</content>
  </entry>
  <entry>
    <id>https://github.com/GEOS-ESM/MAPL#1743465600</id>
    <title>https://github.com/GEOS-ESM/MAPL</title>
    <link href="https://github.com/GEOS-ESM/MAPL" />
    <updated>2025-04-01T00:00:00</updated>
    <content type="text">MAPL is a foundation layer of the GEOS architecture, whose original purpose is to supplement the Earth System Modeling Framework (ESMF)</content>
  </entry>
  <entry>
    <id>https://github.com/MPAS-Dev/MPAS-Model#1743465600</id>
    <title>https://github.com/MPAS-Dev/MPAS-Model</title>
    <link href="https://github.com/MPAS-Dev/MPAS-Model" />
    <updated>2025-04-01T00:00:00</updated>
    <content type="text">Repository for MPAS models and shared framework releases.</content>
  </entry>
  <entry>
    <id>https://github.com/NOAA-GFDL/FMS#1743465600</id>
    <title>https://github.com/NOAA-GFDL/FMS</title>
    <link href="https://github.com/NOAA-GFDL/FMS" />
    <updated>2025-04-01T00:00:00</updated>
    <content type="text">GFDL's Flexible Modeling System</content>
  </entry>
  <entry>
    <id>https://github.com/OpenFAST/openfast#1743465600</id>
    <title>https://github.com/OpenFAST/openfast</title>
    <link href="https://github.com/OpenFAST/openfast" />
    <updated>2025-04-01T00:00:00</updated>
    <content type="text">Main repository for the NREL-supported OpenFAST whole-turbine and FAST.Farm wind farm simulation codes.</content>
  </entry>
  <entry>
    <id>https://github.com/ROCm/aomp#1743465600</id>
    <title>https://github.com/ROCm/aomp</title>
    <link href="https://github.com/ROCm/aomp" />
    <updated>2025-04-01T00:00:00</updated>
    <content type="text">AOMP is an open source Clang/LLVM based compiler with added support for the OpenMP® API on Radeon™ GPUs. Use this repository for releases, issues, documentation, packaging, and examples.</content>
  </entry>
  <entry>
    <id>https://github.com/cp2k/cp2k#1743465600</id>
    <title>https://github.com/cp2k/cp2k</title>
    <link href="https://github.com/cp2k/cp2k" />
    <updated>2025-04-01T00:00:00</updated>
    <content type="text">Quantum chemistry and solid state physics software package</content>
  </entry>
  <entry>
    <id>https://github.com/ecmwf/fckit#1743465600</id>
    <title>https://github.com/ecmwf/fckit</title>
    <link href="https://github.com/ecmwf/fckit" />
    <updated>2025-04-01T00:00:00</updated>
    <content type="text">A Fortran toolkit for interoperating Fortran with C/C++</content>
  </entry>
  <entry>
    <id>https://github.com/esmf-org/esmf#1743465600</id>
    <title>https://github.com/esmf-org/esmf</title>
    <link href="https://github.com/esmf-org/esmf" />
    <updated>2025-04-01T00:00:00</updated>
    <content type="text">The Earth System Modeling Framework (ESMF) is a suite of software tools for developing high-performance, multi-component Earth science modeling applications.</content>
  </entry>
  <entry>
    <id>https://github.com/firemodels/fds#1743465600</id>
    <title>https://github.com/firemodels/fds</title>
    <link href="https://github.com/firemodels/fds" />
    <updated>2025-04-01T00:00:00</updated>
    <content type="text">Fire Dynamics Simulator</content>
  </entry>
  <entry>
    <id>https://github.com/wrf-model/WRF#1743465600</id>
    <title>https://github.com/wrf-model/WRF</title>
    <link href="https://github.com/wrf-model/WRF" />
    <updated>2025-04-01T00:00:00</updated>
    <content type="text">The official repository for the Weather Research and Forecasting (WRF) model</content>
  </entry>
</feed>