<?xml version='1.0' encoding='utf-8'?>
<feed xmlns="http://www.w3.org/2005/Atom" xml:lang="en">
  <id>https://aazw.github.io/github-trending-feeds/feeds/fortran/daily.atom</id>
  <title>GitHub Trending - fortran (daily)</title>
  <link href="https://aazw.github.io/github-trending-feeds/feeds/fortran/daily.atom" rel="self" />
  <link href="https://aazw.github.io/github-trending-feeds/" rel="alternate" />
  <icon>https://github.githubassets.com/favicons/favicon.svg</icon>
  <updated>2025-02-04T00:00:00</updated>
  <author>
    <name>aazw</name>
  </author>
  <entry>
    <id>https://github.com/E3SM-Project/E3SM#1738627200</id>
    <title>https://github.com/E3SM-Project/E3SM</title>
    <link href="https://github.com/E3SM-Project/E3SM" />
    <updated>2025-02-04T00:00:00</updated>
    <content type="text">Energy Exascale Earth System Model source code. NOTE: use "maint" branches for your work. Head of master is not validated.</content>
  </entry>
  <entry>
    <id>https://github.com/Goddard-Fortran-Ecosystem/fArgParse#1738627200</id>
    <title>https://github.com/Goddard-Fortran-Ecosystem/fArgParse</title>
    <link href="https://github.com/Goddard-Fortran-Ecosystem/fArgParse" />
    <updated>2025-02-04T00:00:00</updated>
    <content type="text">Command line argument parsing for Fortran</content>
  </entry>
  <entry>
    <id>https://github.com/OpenFAST/openfast#1738627200</id>
    <title>https://github.com/OpenFAST/openfast</title>
    <link href="https://github.com/OpenFAST/openfast" />
    <updated>2025-02-04T00:00:00</updated>
    <content type="text">Main repository for the NREL-supported OpenFAST whole-turbine and FAST.Farm wind farm simulation codes.</content>
  </entry>
  <entry>
    <id>https://github.com/cp2k/cp2k#1738627200</id>
    <title>https://github.com/cp2k/cp2k</title>
    <link href="https://github.com/cp2k/cp2k" />
    <updated>2025-02-04T00:00:00</updated>
    <content type="text">Quantum chemistry and solid state physics software package</content>
  </entry>
  <entry>
    <id>https://github.com/earth-system-radiation/rte-rrtmgp#1738627200</id>
    <title>https://github.com/earth-system-radiation/rte-rrtmgp</title>
    <link href="https://github.com/earth-system-radiation/rte-rrtmgp" />
    <updated>2025-02-04T00:00:00</updated>
    <content type="text">RTE+RRTMGP is a set of codes for computing radiative fluxes in planetary atmospheres.</content>
  </entry>
  <entry>
    <id>https://github.com/esmf-org/esmf#1738627200</id>
    <title>https://github.com/esmf-org/esmf</title>
    <link href="https://github.com/esmf-org/esmf" />
    <updated>2025-02-04T00:00:00</updated>
    <content type="text">The Earth System Modeling Framework (ESMF) is a suite of software tools for developing high-performance, multi-component Earth science modeling applications.</content>
  </entry>
  <entry>
    <id>https://github.com/fabm-model/fabm#1738627200</id>
    <title>https://github.com/fabm-model/fabm</title>
    <link href="https://github.com/fabm-model/fabm" />
    <updated>2025-02-04T00:00:00</updated>
    <content type="text">The Framework for Aquatic Biogeochemical Models (FABM): a Fortran 2003 programming framework for biogeochemical models of marine and freshwater systems.</content>
  </entry>
  <entry>
    <id>https://github.com/firemodels/fds#1738627200</id>
    <title>https://github.com/firemodels/fds</title>
    <link href="https://github.com/firemodels/fds" />
    <updated>2025-02-04T00:00:00</updated>
    <content type="text">Fire Dynamics Simulator</content>
  </entry>
  <entry>
    <id>https://github.com/wrf-model/WRF#1738627200</id>
    <title>https://github.com/wrf-model/WRF</title>
    <link href="https://github.com/wrf-model/WRF" />
    <updated>2025-02-04T00:00:00</updated>
    <content type="text">The official repository for the Weather Research and Forecasting (WRF) model</content>
  </entry>
</feed>