<?xml version='1.0' encoding='utf-8'?>
<feed xmlns="http://www.w3.org/2005/Atom" xml:lang="en">
  <id>https://aazw.github.io/github-trending-feeds/feeds/fortran/daily.atom</id>
  <title>GitHub Trending - fortran (daily)</title>
  <link href="https://aazw.github.io/github-trending-feeds/feeds/fortran/daily.atom" rel="self" />
  <link href="https://aazw.github.io/github-trending-feeds/" rel="alternate" />
  <icon>https://github.githubassets.com/favicons/favicon.svg</icon>
  <updated>2025-06-21T00:00:00</updated>
  <author>
    <name>aazw</name>
  </author>
  <entry>
    <id>https://github.com/E3SM-Project/E3SM#1750464000</id>
    <title>https://github.com/E3SM-Project/E3SM</title>
    <link href="https://github.com/E3SM-Project/E3SM" />
    <updated>2025-06-21T00:00:00</updated>
    <content type="text">Energy Exascale Earth System Model source code. NOTE: use "maint" branches for your work. Head of master is not validated.</content>
  </entry>
  <entry>
    <id>https://github.com/ESCOMP/CTSM#1750464000</id>
    <title>https://github.com/ESCOMP/CTSM</title>
    <link href="https://github.com/ESCOMP/CTSM" />
    <updated>2025-06-21T00:00:00</updated>
    <content type="text">Community Terrestrial Systems Model (includes the Community Land Model of CESM)</content>
  </entry>
  <entry>
    <id>https://github.com/GEOS-ESM/MAPL#1750464000</id>
    <title>https://github.com/GEOS-ESM/MAPL</title>
    <link href="https://github.com/GEOS-ESM/MAPL" />
    <updated>2025-06-21T00:00:00</updated>
    <content type="text">MAPL is a foundation layer of the GEOS architecture, whose original purpose is to supplement the Earth System Modeling Framework (ESMF)</content>
  </entry>
  <entry>
    <id>https://github.com/MPAS-Dev/MPAS-Model#1750464000</id>
    <title>https://github.com/MPAS-Dev/MPAS-Model</title>
    <link href="https://github.com/MPAS-Dev/MPAS-Model" />
    <updated>2025-06-21T00:00:00</updated>
    <content type="text">Repository for MPAS models and shared framework releases.</content>
  </entry>
  <entry>
    <id>https://github.com/OpenFAST/openfast#1750464000</id>
    <title>https://github.com/OpenFAST/openfast</title>
    <link href="https://github.com/OpenFAST/openfast" />
    <updated>2025-06-21T00:00:00</updated>
    <content type="text">Main repository for the NREL-supported OpenFAST whole-turbine and FAST.Farm wind farm simulation codes.</content>
  </entry>
  <entry>
    <id>https://github.com/wrf-model/WRF#1750464000</id>
    <title>https://github.com/wrf-model/WRF</title>
    <link href="https://github.com/wrf-model/WRF" />
    <updated>2025-06-21T00:00:00</updated>
    <content type="text">The official repository for the Weather Research and Forecasting (WRF) model</content>
  </entry>
</feed>