<?xml version='1.0' encoding='utf-8'?>
<ns0:feed xmlns:ns0="http://www.w3.org/2005/Atom" xml:lang="en">
  <ns0:id>https://aazw.github.io/github-trending-feeds/feeds/fortran/daily.atom</ns0:id>
  <ns0:title>GitHub Trending - fortran (daily)</ns0:title>
  <ns0:link href="https://aazw.github.io/github-trending-feeds/feeds/fortran/daily.atom" rel="self"/>
  <ns0:link href="https://aazw.github.io/github-trending-feeds/" rel="alternate"/>
  <ns0:icon>https://github.githubassets.com/favicons/favicon.svg</ns0:icon>
  <ns0:updated>2026-02-10T00:00:00</ns0:updated>
  <ns0:author>
    <ns0:name>aazw</ns0:name>
  </ns0:author>
  <ns0:entry>
    <ns0:id>urn:github:MetOffice:lfric_apps:1770681600</ns0:id>
    <ns0:title>MetOffice/lfric_apps</ns0:title>
    <ns0:link href="https://github.com/MetOffice/lfric_apps"/>
    <ns0:updated>2026-02-10T00:00:00</ns0:updated>
    <ns0:content type="html">&lt;div&gt;
&lt;div&gt;&lt;strong&gt;URL:&lt;/strong&gt; &lt;a href="https://github.com/MetOffice/lfric_apps"&gt;https://github.com/MetOffice/lfric_apps&lt;/a&gt;&lt;/div&gt;
&lt;div&gt;&lt;strong&gt;Language:&lt;/strong&gt; fortran&lt;/div&gt;
&lt;hr&gt;
&lt;div&gt;LFRic Applications&lt;/div&gt;
&lt;/div&gt;</ns0:content>
  </ns0:entry>
  <ns0:entry>
    <ns0:id>urn:github:OpenFAST:openfast:1770681600</ns0:id>
    <ns0:title>OpenFAST/openfast</ns0:title>
    <ns0:link href="https://github.com/OpenFAST/openfast"/>
    <ns0:updated>2026-02-10T00:00:00</ns0:updated>
    <ns0:content type="html">&lt;div&gt;
&lt;div&gt;&lt;strong&gt;URL:&lt;/strong&gt; &lt;a href="https://github.com/OpenFAST/openfast"&gt;https://github.com/OpenFAST/openfast&lt;/a&gt;&lt;/div&gt;
&lt;div&gt;&lt;strong&gt;Language:&lt;/strong&gt; fortran&lt;/div&gt;
&lt;hr&gt;
&lt;div&gt;Main repository for the NREL-supported OpenFAST whole-turbine and FAST.Farm wind farm simulation codes.&lt;/div&gt;
&lt;/div&gt;</ns0:content>
  </ns0:entry>
  <ns0:entry>
    <ns0:id>urn:github:OpenRadioss:OpenRadioss:1770681600</ns0:id>
    <ns0:title>OpenRadioss/OpenRadioss</ns0:title>
    <ns0:link href="https://github.com/OpenRadioss/OpenRadioss"/>
    <ns0:updated>2026-02-10T00:00:00</ns0:updated>
    <ns0:content type="html">&lt;div&gt;
&lt;div&gt;&lt;strong&gt;URL:&lt;/strong&gt; &lt;a href="https://github.com/OpenRadioss/OpenRadioss"&gt;https://github.com/OpenRadioss/OpenRadioss&lt;/a&gt;&lt;/div&gt;
&lt;div&gt;&lt;strong&gt;Language:&lt;/strong&gt; fortran&lt;/div&gt;
&lt;hr&gt;
&lt;div&gt;OpenRadioss is a powerful, industry-proven finite element solver for dynamic event analysis&lt;/div&gt;
&lt;/div&gt;</ns0:content>
  </ns0:entry>
  <ns0:entry>
    <ns0:id>urn:github:Reference-LAPACK:lapack:1770681600</ns0:id>
    <ns0:title>Reference-LAPACK/lapack</ns0:title>
    <ns0:link href="https://github.com/Reference-LAPACK/lapack"/>
    <ns0:updated>2026-02-10T00:00:00</ns0:updated>
    <ns0:content type="html">&lt;div&gt;
&lt;div&gt;&lt;strong&gt;URL:&lt;/strong&gt; &lt;a href="https://github.com/Reference-LAPACK/lapack"&gt;https://github.com/Reference-LAPACK/lapack&lt;/a&gt;&lt;/div&gt;
&lt;div&gt;&lt;strong&gt;Language:&lt;/strong&gt; fortran&lt;/div&gt;
&lt;hr&gt;
&lt;div&gt;LAPACK development repository&lt;/div&gt;
&lt;/div&gt;</ns0:content>
  </ns0:entry>
  <ns0:entry>
    <ns0:id>urn:github:cp2k:cp2k:1770681600</ns0:id>
    <ns0:title>cp2k/cp2k</ns0:title>
    <ns0:link href="https://github.com/cp2k/cp2k"/>
    <ns0:updated>2026-02-10T00:00:00</ns0:updated>
    <ns0:content type="html">&lt;div&gt;
&lt;div&gt;&lt;strong&gt;URL:&lt;/strong&gt; &lt;a href="https://github.com/cp2k/cp2k"&gt;https://github.com/cp2k/cp2k&lt;/a&gt;&lt;/div&gt;
&lt;div&gt;&lt;strong&gt;Language:&lt;/strong&gt; fortran&lt;/div&gt;
&lt;hr&gt;
&lt;div&gt;Quantum chemistry and solid state physics software package&lt;/div&gt;
&lt;/div&gt;</ns0:content>
  </ns0:entry>
  <ns0:entry>
    <ns0:id>urn:github:ecmwf:fckit:1770681600</ns0:id>
    <ns0:title>ecmwf/fckit</ns0:title>
    <ns0:link href="https://github.com/ecmwf/fckit"/>
    <ns0:updated>2026-02-10T00:00:00</ns0:updated>
    <ns0:content type="html">&lt;div&gt;
&lt;div&gt;&lt;strong&gt;URL:&lt;/strong&gt; &lt;a href="https://github.com/ecmwf/fckit"&gt;https://github.com/ecmwf/fckit&lt;/a&gt;&lt;/div&gt;
&lt;div&gt;&lt;strong&gt;Language:&lt;/strong&gt; fortran&lt;/div&gt;
&lt;hr&gt;
&lt;div&gt;A Fortran toolkit for interoperating Fortran with C/C++&lt;/div&gt;
&lt;/div&gt;</ns0:content>
  </ns0:entry>
  <ns0:entry>
    <ns0:id>urn:github:firemodels:fds:1770681600</ns0:id>
    <ns0:title>firemodels/fds</ns0:title>
    <ns0:link href="https://github.com/firemodels/fds"/>
    <ns0:updated>2026-02-10T00:00:00</ns0:updated>
    <ns0:content type="html">&lt;div&gt;
&lt;div&gt;&lt;strong&gt;URL:&lt;/strong&gt; &lt;a href="https://github.com/firemodels/fds"&gt;https://github.com/firemodels/fds&lt;/a&gt;&lt;/div&gt;
&lt;div&gt;&lt;strong&gt;Language:&lt;/strong&gt; fortran&lt;/div&gt;
&lt;hr&gt;
&lt;div&gt;Fire Dynamics Simulator&lt;/div&gt;
&lt;/div&gt;</ns0:content>
  </ns0:entry>
  <ns0:entry>
    <ns0:id>urn:github:geoschem:geos-chem:1770681600</ns0:id>
    <ns0:title>geoschem/geos-chem</ns0:title>
    <ns0:link href="https://github.com/geoschem/geos-chem"/>
    <ns0:updated>2026-02-10T00:00:00</ns0:updated>
    <ns0:content type="html">&lt;div&gt;
&lt;div&gt;&lt;strong&gt;URL:&lt;/strong&gt; &lt;a href="https://github.com/geoschem/geos-chem"&gt;https://github.com/geoschem/geos-chem&lt;/a&gt;&lt;/div&gt;
&lt;div&gt;&lt;strong&gt;Language:&lt;/strong&gt; fortran&lt;/div&gt;
&lt;hr&gt;
&lt;div&gt;GEOS-Chem "Science Codebase" repository. Contains GEOS-Chem science routines, run directory generation scripts, and interface code. This repository is used as a submodule within the GCClassic and GCHP wrappers, as well as in other modeling contexts (external ESMs).&lt;/div&gt;
&lt;/div&gt;</ns0:content>
  </ns0:entry>
  <ns0:entry>
    <ns0:id>urn:github:pmlmodelling:ersem:1770681600</ns0:id>
    <ns0:title>pmlmodelling/ersem</ns0:title>
    <ns0:link href="https://github.com/pmlmodelling/ersem"/>
    <ns0:updated>2026-02-10T00:00:00</ns0:updated>
    <ns0:content type="html">&lt;div&gt;
&lt;div&gt;&lt;strong&gt;URL:&lt;/strong&gt; &lt;a href="https://github.com/pmlmodelling/ersem"&gt;https://github.com/pmlmodelling/ersem&lt;/a&gt;&lt;/div&gt;
&lt;div&gt;&lt;strong&gt;Language:&lt;/strong&gt; fortran&lt;/div&gt;
&lt;hr&gt;
&lt;div&gt;European Regional Seas Ecosystem Model&lt;/div&gt;
&lt;/div&gt;</ns0:content>
  </ns0:entry>
  <ns0:entry>
    <ns0:id>urn:github:wrf-model:WRF:1770681600</ns0:id>
    <ns0:title>wrf-model/WRF</ns0:title>
    <ns0:link href="https://github.com/wrf-model/WRF"/>
    <ns0:updated>2026-02-10T00:00:00</ns0:updated>
    <ns0:content type="html">&lt;div&gt;
&lt;div&gt;&lt;strong&gt;URL:&lt;/strong&gt; &lt;a href="https://github.com/wrf-model/WRF"&gt;https://github.com/wrf-model/WRF&lt;/a&gt;&lt;/div&gt;
&lt;div&gt;&lt;strong&gt;Language:&lt;/strong&gt; fortran&lt;/div&gt;
&lt;hr&gt;
&lt;div&gt;The official repository for the Weather Research and Forecasting (WRF) model&lt;/div&gt;
&lt;/div&gt;</ns0:content>
  </ns0:entry>
</ns0:feed>