<?xml version='1.0' encoding='utf-8'?>
<feed xmlns="http://www.w3.org/2005/Atom" xml:lang="en">
  <id>https://aazw.github.io/github-trending-feeds/feeds/fortran/daily.atom</id>
  <title>GitHub Trending - fortran (daily)</title>
  <link href="https://aazw.github.io/github-trending-feeds/feeds/fortran/daily.atom" rel="self" />
  <link href="https://aazw.github.io/github-trending-feeds/" rel="alternate" />
  <icon>https://github.githubassets.com/favicons/favicon.svg</icon>
  <updated>2025-02-11T00:00:00</updated>
  <author>
    <name>aazw</name>
  </author>
  <entry>
    <id>https://github.com/GEOS-ESM/MAPL#1739232000</id>
    <title>https://github.com/GEOS-ESM/MAPL</title>
    <link href="https://github.com/GEOS-ESM/MAPL" />
    <updated>2025-02-11T00:00:00</updated>
    <content type="text">MAPL is a foundation layer of the GEOS architecture, whose original purpose is to supplement the Earth System Modeling Framework (ESMF)</content>
  </entry>
  <entry>
    <id>https://github.com/Goddard-Fortran-Ecosystem/fArgParse#1739232000</id>
    <title>https://github.com/Goddard-Fortran-Ecosystem/fArgParse</title>
    <link href="https://github.com/Goddard-Fortran-Ecosystem/fArgParse" />
    <updated>2025-02-11T00:00:00</updated>
    <content type="text">Command line argument parsing for Fortran</content>
  </entry>
  <entry>
    <id>https://github.com/Goddard-Fortran-Ecosystem/gFTL#1739232000</id>
    <title>https://github.com/Goddard-Fortran-Ecosystem/gFTL</title>
    <link href="https://github.com/Goddard-Fortran-Ecosystem/gFTL" />
    <updated>2025-02-11T00:00:00</updated>
    <content type="text">Software containers for Fortran</content>
  </entry>
  <entry>
    <id>https://github.com/MFlowCode/MFC#1739232000</id>
    <title>https://github.com/MFlowCode/MFC</title>
    <link href="https://github.com/MFlowCode/MFC" />
    <updated>2025-02-11T00:00:00</updated>
    <content type="text">Exascale simulation of multiphase/physics fluid dynamics</content>
  </entry>
  <entry>
    <id>https://github.com/NOAA-GFDL/GFDL_atmos_cubed_sphere#1739232000</id>
    <title>https://github.com/NOAA-GFDL/GFDL_atmos_cubed_sphere</title>
    <link href="https://github.com/NOAA-GFDL/GFDL_atmos_cubed_sphere" />
    <updated>2025-02-11T00:00:00</updated>
    <content type="text">The GFDL atmos_cubed_sphere dynamical core code</content>
  </entry>
  <entry>
    <id>https://github.com/OpenFAST/openfast#1739232000</id>
    <title>https://github.com/OpenFAST/openfast</title>
    <link href="https://github.com/OpenFAST/openfast" />
    <updated>2025-02-11T00:00:00</updated>
    <content type="text">Main repository for the NREL-supported OpenFAST whole-turbine and FAST.Farm wind farm simulation codes.</content>
  </entry>
  <entry>
    <id>https://github.com/OpenRadioss/OpenRadioss#1739232000</id>
    <title>https://github.com/OpenRadioss/OpenRadioss</title>
    <link href="https://github.com/OpenRadioss/OpenRadioss" />
    <updated>2025-02-11T00:00:00</updated>
    <content type="text">OpenRadioss is a powerful, industry-proven finite element solver for dynamic event analysis</content>
  </entry>
  <entry>
    <id>https://github.com/USEPA/CMAQ#1739232000</id>
    <title>https://github.com/USEPA/CMAQ</title>
    <link href="https://github.com/USEPA/CMAQ" />
    <updated>2025-02-11T00:00:00</updated>
    <content type="text">Code for U.S. EPA’s Community Multiscale Air Quality Model (CMAQ) which helps in conducting air quality model simulations</content>
  </entry>
  <entry>
    <id>https://github.com/cp2k/cp2k#1739232000</id>
    <title>https://github.com/cp2k/cp2k</title>
    <link href="https://github.com/cp2k/cp2k" />
    <updated>2025-02-11T00:00:00</updated>
    <content type="text">Quantum chemistry and solid state physics software package</content>
  </entry>
  <entry>
    <id>https://github.com/ecmwf/fckit#1739232000</id>
    <title>https://github.com/ecmwf/fckit</title>
    <link href="https://github.com/ecmwf/fckit" />
    <updated>2025-02-11T00:00:00</updated>
    <content type="text">A Fortran toolkit for interoperating Fortran with C/C++</content>
  </entry>
  <entry>
    <id>https://github.com/esmf-org/esmf#1739232000</id>
    <title>https://github.com/esmf-org/esmf</title>
    <link href="https://github.com/esmf-org/esmf" />
    <updated>2025-02-11T00:00:00</updated>
    <content type="text">The Earth System Modeling Framework (ESMF) is a suite of software tools for developing high-performance, multi-component Earth science modeling applications.</content>
  </entry>
  <entry>
    <id>https://github.com/firemodels/fds#1739232000</id>
    <title>https://github.com/firemodels/fds</title>
    <link href="https://github.com/firemodels/fds" />
    <updated>2025-02-11T00:00:00</updated>
    <content type="text">Fire Dynamics Simulator</content>
  </entry>
  <entry>
    <id>https://github.com/grimme-lab/xtb#1739232000</id>
    <title>https://github.com/grimme-lab/xtb</title>
    <link href="https://github.com/grimme-lab/xtb" />
    <updated>2025-02-11T00:00:00</updated>
    <content type="text">Semiempirical Extended Tight-Binding Program Package</content>
  </entry>
  <entry>
    <id>https://github.com/ufs-community/ufs-weather-model#1739232000</id>
    <title>https://github.com/ufs-community/ufs-weather-model</title>
    <link href="https://github.com/ufs-community/ufs-weather-model" />
    <updated>2025-02-11T00:00:00</updated>
    <content type="text">UFS Weather Model</content>
  </entry>
  <entry>
    <id>https://github.com/wrf-model/WRF#1739232000</id>
    <title>https://github.com/wrf-model/WRF</title>
    <link href="https://github.com/wrf-model/WRF" />
    <updated>2025-02-11T00:00:00</updated>
    <content type="text">The official repository for the Weather Research and Forecasting (WRF) model</content>
  </entry>
</feed>