<?xml version='1.0' encoding='utf-8'?>
<ns0:feed xmlns:ns0="http://www.w3.org/2005/Atom" xml:lang="en">
  <ns0:id>https://aazw.github.io/github-trending-feeds/feeds/fortran/daily.atom</ns0:id>
  <ns0:title>GitHub Trending - fortran (daily)</ns0:title>
  <ns0:link href="https://aazw.github.io/github-trending-feeds/feeds/fortran/daily.atom" rel="self"/>
  <ns0:link href="https://aazw.github.io/github-trending-feeds/" rel="alternate"/>
  <ns0:icon>https://github.githubassets.com/favicons/favicon.svg</ns0:icon>
  <ns0:updated>2025-06-26T00:00:00</ns0:updated>
  <ns0:author>
    <ns0:name>aazw</ns0:name>
  </ns0:author>
  <ns0:entry>
    <ns0:id>https://github.com/CICE-Consortium/Icepack#1750896000</ns0:id>
    <ns0:title>https://github.com/CICE-Consortium/Icepack</ns0:title>
    <ns0:link href="https://github.com/CICE-Consortium/Icepack"/>
    <ns0:updated>2025-06-26T00:00:00</ns0:updated>
    <ns0:content type="text">Development repository for sea-ice column physics</ns0:content>
  </ns0:entry>
  <ns0:entry>
    <ns0:id>https://github.com/GEOS-ESM/MAPL#1750896000</ns0:id>
    <ns0:title>https://github.com/GEOS-ESM/MAPL</ns0:title>
    <ns0:link href="https://github.com/GEOS-ESM/MAPL"/>
    <ns0:updated>2025-06-26T00:00:00</ns0:updated>
    <ns0:content type="text">MAPL is a foundation layer of the GEOS architecture, whose original purpose is to supplement the Earth System Modeling Framework (ESMF)</ns0:content>
  </ns0:entry>
  <ns0:entry>
    <ns0:id>https://github.com/NOAA-GFDL/FMS#1750896000</ns0:id>
    <ns0:title>https://github.com/NOAA-GFDL/FMS</ns0:title>
    <ns0:link href="https://github.com/NOAA-GFDL/FMS"/>
    <ns0:updated>2025-06-26T00:00:00</ns0:updated>
    <ns0:content type="text">GFDL's Flexible Modeling System</ns0:content>
  </ns0:entry>
  <ns0:entry>
    <ns0:id>https://github.com/OpenFAST/openfast#1750896000</ns0:id>
    <ns0:title>https://github.com/OpenFAST/openfast</ns0:title>
    <ns0:link href="https://github.com/OpenFAST/openfast"/>
    <ns0:updated>2025-06-26T00:00:00</ns0:updated>
    <ns0:content type="text">Main repository for the NREL-supported OpenFAST whole-turbine and FAST.Farm wind farm simulation codes.</ns0:content>
  </ns0:entry>
  <ns0:entry>
    <ns0:id>https://github.com/Reference-LAPACK/lapack#1750896000</ns0:id>
    <ns0:title>https://github.com/Reference-LAPACK/lapack</ns0:title>
    <ns0:link href="https://github.com/Reference-LAPACK/lapack"/>
    <ns0:updated>2025-06-26T00:00:00</ns0:updated>
    <ns0:content type="text">LAPACK development repository</ns0:content>
  </ns0:entry>
  <ns0:entry>
    <ns0:id>https://github.com/cp2k/cp2k#1750896000</ns0:id>
    <ns0:title>https://github.com/cp2k/cp2k</ns0:title>
    <ns0:link href="https://github.com/cp2k/cp2k"/>
    <ns0:updated>2025-06-26T00:00:00</ns0:updated>
    <ns0:content type="text">Quantum chemistry and solid state physics software package</ns0:content>
  </ns0:entry>
  <ns0:entry>
    <ns0:id>https://github.com/earth-system-radiation/rte-rrtmgp#1750896000</ns0:id>
    <ns0:title>https://github.com/earth-system-radiation/rte-rrtmgp</ns0:title>
    <ns0:link href="https://github.com/earth-system-radiation/rte-rrtmgp"/>
    <ns0:updated>2025-06-26T00:00:00</ns0:updated>
    <ns0:content type="text">RTE+RRTMGP is a set of codes for computing radiative fluxes in planetary atmospheres.</ns0:content>
  </ns0:entry>
  <ns0:entry>
    <ns0:id>https://github.com/ecmwf/fckit#1750896000</ns0:id>
    <ns0:title>https://github.com/ecmwf/fckit</ns0:title>
    <ns0:link href="https://github.com/ecmwf/fckit"/>
    <ns0:updated>2025-06-26T00:00:00</ns0:updated>
    <ns0:content type="text">A Fortran toolkit for interoperating Fortran with C/C++</ns0:content>
  </ns0:entry>
  <ns0:entry>
    <ns0:id>https://github.com/esmf-org/esmf#1750896000</ns0:id>
    <ns0:title>https://github.com/esmf-org/esmf</ns0:title>
    <ns0:link href="https://github.com/esmf-org/esmf"/>
    <ns0:updated>2025-06-26T00:00:00</ns0:updated>
    <ns0:content type="text">The Earth System Modeling Framework (ESMF) is a suite of software tools for developing high-performance, multi-component Earth science modeling applications.</ns0:content>
  </ns0:entry>
  <ns0:entry>
    <ns0:id>https://github.com/geoschem/geos-chem#1750896000</ns0:id>
    <ns0:title>https://github.com/geoschem/geos-chem</ns0:title>
    <ns0:link href="https://github.com/geoschem/geos-chem"/>
    <ns0:updated>2025-06-26T00:00:00</ns0:updated>
    <ns0:content type="text">GEOS-Chem "Science Codebase" repository. Contains GEOS-Chem science routines, run directory generation scripts, and interface code. This repository is used as a submodule within the GCClassic and GCHP wrappers, as well as in other modeling contexts (external ESMs).</ns0:content>
  </ns0:entry>
  <ns0:entry>
    <ns0:id>https://github.com/grimme-lab/xtb#1750896000</ns0:id>
    <ns0:title>https://github.com/grimme-lab/xtb</ns0:title>
    <ns0:link href="https://github.com/grimme-lab/xtb"/>
    <ns0:updated>2025-06-26T00:00:00</ns0:updated>
    <ns0:content type="text">Semiempirical Extended Tight-Binding Program Package</ns0:content>
  </ns0:entry>
  <ns0:entry>
    <ns0:id>https://github.com/wrf-model/WRF#1750896000</ns0:id>
    <ns0:title>https://github.com/wrf-model/WRF</ns0:title>
    <ns0:link href="https://github.com/wrf-model/WRF"/>
    <ns0:updated>2025-06-26T00:00:00</ns0:updated>
    <ns0:content type="text">The official repository for the Weather Research and Forecasting (WRF) model</ns0:content>
  </ns0:entry>
</ns0:feed>