<?xml version='1.0' encoding='utf-8'?>
<ns0:feed xmlns:ns0="http://www.w3.org/2005/Atom" xml:lang="en">
  <ns0:id>https://aazw.github.io/github-trending-feeds/feeds/fortran/daily.atom</ns0:id>
  <ns0:title>GitHub Trending - fortran (daily)</ns0:title>
  <ns0:link href="https://aazw.github.io/github-trending-feeds/feeds/fortran/daily.atom" rel="self"/>
  <ns0:link href="https://aazw.github.io/github-trending-feeds/" rel="alternate"/>
  <ns0:icon>https://github.githubassets.com/favicons/favicon.svg</ns0:icon>
  <ns0:updated>2026-01-20T00:00:00</ns0:updated>
  <ns0:author>
    <ns0:name>aazw</ns0:name>
  </ns0:author>
  <ns0:entry>
    <ns0:id>urn:github:OpenFAST:openfast:1768867200</ns0:id>
    <ns0:title>OpenFAST/openfast</ns0:title>
    <ns0:link href="https://github.com/OpenFAST/openfast"/>
    <ns0:updated>2026-01-20T00:00:00</ns0:updated>
    <ns0:content type="html">&lt;div&gt;
&lt;div&gt;&lt;strong&gt;URL:&lt;/strong&gt; &lt;a href="https://github.com/OpenFAST/openfast"&gt;https://github.com/OpenFAST/openfast&lt;/a&gt;&lt;/div&gt;
&lt;div&gt;&lt;strong&gt;Language:&lt;/strong&gt; fortran&lt;/div&gt;
&lt;hr&gt;
&lt;div&gt;Main repository for the NREL-supported OpenFAST whole-turbine and FAST.Farm wind farm simulation codes.&lt;/div&gt;
&lt;/div&gt;</ns0:content>
  </ns0:entry>
  <ns0:entry>
    <ns0:id>urn:github:Reference-LAPACK:lapack:1768867200</ns0:id>
    <ns0:title>Reference-LAPACK/lapack</ns0:title>
    <ns0:link href="https://github.com/Reference-LAPACK/lapack"/>
    <ns0:updated>2026-01-20T00:00:00</ns0:updated>
    <ns0:content type="html">&lt;div&gt;
&lt;div&gt;&lt;strong&gt;URL:&lt;/strong&gt; &lt;a href="https://github.com/Reference-LAPACK/lapack"&gt;https://github.com/Reference-LAPACK/lapack&lt;/a&gt;&lt;/div&gt;
&lt;div&gt;&lt;strong&gt;Language:&lt;/strong&gt; fortran&lt;/div&gt;
&lt;hr&gt;
&lt;div&gt;LAPACK development repository&lt;/div&gt;
&lt;/div&gt;</ns0:content>
  </ns0:entry>
  <ns0:entry>
    <ns0:id>urn:github:cp2k:cp2k:1768867200</ns0:id>
    <ns0:title>cp2k/cp2k</ns0:title>
    <ns0:link href="https://github.com/cp2k/cp2k"/>
    <ns0:updated>2026-01-20T00:00:00</ns0:updated>
    <ns0:content type="html">&lt;div&gt;
&lt;div&gt;&lt;strong&gt;URL:&lt;/strong&gt; &lt;a href="https://github.com/cp2k/cp2k"&gt;https://github.com/cp2k/cp2k&lt;/a&gt;&lt;/div&gt;
&lt;div&gt;&lt;strong&gt;Language:&lt;/strong&gt; fortran&lt;/div&gt;
&lt;hr&gt;
&lt;div&gt;Quantum chemistry and solid state physics software package&lt;/div&gt;
&lt;/div&gt;</ns0:content>
  </ns0:entry>
  <ns0:entry>
    <ns0:id>urn:github:ecmwf:fckit:1768867200</ns0:id>
    <ns0:title>ecmwf/fckit</ns0:title>
    <ns0:link href="https://github.com/ecmwf/fckit"/>
    <ns0:updated>2026-01-20T00:00:00</ns0:updated>
    <ns0:content type="html">&lt;div&gt;
&lt;div&gt;&lt;strong&gt;URL:&lt;/strong&gt; &lt;a href="https://github.com/ecmwf/fckit"&gt;https://github.com/ecmwf/fckit&lt;/a&gt;&lt;/div&gt;
&lt;div&gt;&lt;strong&gt;Language:&lt;/strong&gt; fortran&lt;/div&gt;
&lt;hr&gt;
&lt;div&gt;A Fortran toolkit for interoperating Fortran with C/C++&lt;/div&gt;
&lt;/div&gt;</ns0:content>
  </ns0:entry>
  <ns0:entry>
    <ns0:id>urn:github:geoschem:geos-chem:1768867200</ns0:id>
    <ns0:title>geoschem/geos-chem</ns0:title>
    <ns0:link href="https://github.com/geoschem/geos-chem"/>
    <ns0:updated>2026-01-20T00:00:00</ns0:updated>
    <ns0:content type="html">&lt;div&gt;
&lt;div&gt;&lt;strong&gt;URL:&lt;/strong&gt; &lt;a href="https://github.com/geoschem/geos-chem"&gt;https://github.com/geoschem/geos-chem&lt;/a&gt;&lt;/div&gt;
&lt;div&gt;&lt;strong&gt;Language:&lt;/strong&gt; fortran&lt;/div&gt;
&lt;hr&gt;
&lt;div&gt;GEOS-Chem "Science Codebase" repository. Contains GEOS-Chem science routines, run directory generation scripts, and interface code. This repository is used as a submodule within the GCClassic and GCHP wrappers, as well as in other modeling contexts (external ESMs).&lt;/div&gt;
&lt;/div&gt;</ns0:content>
  </ns0:entry>
  <ns0:entry>
    <ns0:id>urn:github:grimme-lab:xtb:1768867200</ns0:id>
    <ns0:title>grimme-lab/xtb</ns0:title>
    <ns0:link href="https://github.com/grimme-lab/xtb"/>
    <ns0:updated>2026-01-20T00:00:00</ns0:updated>
    <ns0:content type="html">&lt;div&gt;
&lt;div&gt;&lt;strong&gt;URL:&lt;/strong&gt; &lt;a href="https://github.com/grimme-lab/xtb"&gt;https://github.com/grimme-lab/xtb&lt;/a&gt;&lt;/div&gt;
&lt;div&gt;&lt;strong&gt;Language:&lt;/strong&gt; fortran&lt;/div&gt;
&lt;hr&gt;
&lt;div&gt;Semiempirical Extended Tight-Binding Program Package&lt;/div&gt;
&lt;/div&gt;</ns0:content>
  </ns0:entry>
  <ns0:entry>
    <ns0:id>urn:github:wrf-model:WRF:1768867200</ns0:id>
    <ns0:title>wrf-model/WRF</ns0:title>
    <ns0:link href="https://github.com/wrf-model/WRF"/>
    <ns0:updated>2026-01-20T00:00:00</ns0:updated>
    <ns0:content type="html">&lt;div&gt;
&lt;div&gt;&lt;strong&gt;URL:&lt;/strong&gt; &lt;a href="https://github.com/wrf-model/WRF"&gt;https://github.com/wrf-model/WRF&lt;/a&gt;&lt;/div&gt;
&lt;div&gt;&lt;strong&gt;Language:&lt;/strong&gt; fortran&lt;/div&gt;
&lt;hr&gt;
&lt;div&gt;The official repository for the Weather Research and Forecasting (WRF) model&lt;/div&gt;
&lt;/div&gt;</ns0:content>
  </ns0:entry>
</ns0:feed>