<?xml version='1.0' encoding='utf-8'?>
<feed xmlns="http://www.w3.org/2005/Atom" xml:lang="en">
  <id>https://aazw.github.io/github-trending-feeds/feeds/fortran/monthly.atom</id>
  <title>GitHub Trending - fortran (monthly)</title>
  <link href="https://aazw.github.io/github-trending-feeds/feeds/fortran/monthly.atom" rel="self" />
  <link href="https://aazw.github.io/github-trending-feeds/" rel="alternate" />
  <icon>https://github.githubassets.com/favicons/favicon.svg</icon>
  <updated>2025-01-01T13:16:15+00:00</updated>
  <author>
    <name>aazw</name>
  </author>
  <entry>
    <id>https://github.com/danieljprice/phantom#1735737375</id>
    <title>https://github.com/danieljprice/phantom</title>
    <link href="https://github.com/danieljprice/phantom" />
    <updated>2025-01-01T13:16:15+00:00</updated>
    <content type="text">Phantom Smoothed Particle Hydrodynamics and Magnetohydrodynamics code</content>
  </entry>
  <entry>
    <id>https://github.com/OpenFAST/openfast#1735737375</id>
    <title>https://github.com/OpenFAST/openfast</title>
    <link href="https://github.com/OpenFAST/openfast" />
    <updated>2025-01-01T13:16:15+00:00</updated>
    <content type="text">Main repository for the NREL-supported OpenFAST whole-turbine and FAST.Farm wind farm simulation codes.</content>
  </entry>
  <entry>
    <id>https://github.com/grimme-lab/xtb#1735737375</id>
    <title>https://github.com/grimme-lab/xtb</title>
    <link href="https://github.com/grimme-lab/xtb" />
    <updated>2025-01-01T13:16:15+00:00</updated>
    <content type="text">Semiempirical Extended Tight-Binding Program Package</content>
  </entry>
  <entry>
    <id>https://github.com/cp2k/cp2k#1735737375</id>
    <title>https://github.com/cp2k/cp2k</title>
    <link href="https://github.com/cp2k/cp2k" />
    <updated>2025-01-01T13:16:15+00:00</updated>
    <content type="text">Quantum chemistry and solid state physics software package</content>
  </entry>
  <entry>
    <id>https://github.com/wrf-model/WRF#1735737375</id>
    <title>https://github.com/wrf-model/WRF</title>
    <link href="https://github.com/wrf-model/WRF" />
    <updated>2025-01-01T13:16:15+00:00</updated>
    <content type="text">The official repository for the Weather Research and Forecasting (WRF) model</content>
  </entry>
  <entry>
    <id>https://github.com/GEOS-ESM/MAPL#1735737375</id>
    <title>https://github.com/GEOS-ESM/MAPL</title>
    <link href="https://github.com/GEOS-ESM/MAPL" />
    <updated>2025-01-01T13:16:15+00:00</updated>
    <content type="text">MAPL is a foundation layer of the GEOS architecture, whose original purpose is to supplement the Earth System Modeling Framework (ESMF)</content>
  </entry>
</feed>