<?xml version='1.0' encoding='utf-8'?>
<feed xmlns="http://www.w3.org/2005/Atom" xml:lang="en">
  <id>https://aazw.github.io/github-trending-feeds/feeds/roff/daily.atom</id>
  <title>GitHub Trending - roff (daily)</title>
  <link href="https://aazw.github.io/github-trending-feeds/feeds/roff/daily.atom" rel="self" />
  <link href="https://aazw.github.io/github-trending-feeds/" rel="alternate" />
  <icon>https://github.githubassets.com/favicons/favicon.svg</icon>
  <updated>2025-04-14T00:00:00</updated>
  <author>
    <name>aazw</name>
  </author>
  <entry>
    <id>https://github.com/IEAWindSystems/IEA-15-240-RWT#1744588800</id>
    <title>https://github.com/IEAWindSystems/IEA-15-240-RWT</title>
    <link href="https://github.com/IEAWindSystems/IEA-15-240-RWT" />
    <updated>2025-04-14T00:00:00</updated>
    <content type="text">15MW reference wind turbine repository developed in conjunction with IEA Wind</content>
  </entry>
  <entry>
    <id>https://github.com/OpenFAST/r-test#1744588800</id>
    <title>https://github.com/OpenFAST/r-test</title>
    <link href="https://github.com/OpenFAST/r-test" />
    <updated>2025-04-14T00:00:00</updated>
    <content type="text">Collection of regression tests for OpenFAST and its modules, which can also be used as example models. This repository is a submodule of the https://github.com/OpenFAST/openfast/ repository.</content>
  </entry>
  <entry>
    <id>https://github.com/lydrainbowcat/tedukuri#1744588800</id>
    <title>https://github.com/lydrainbowcat/tedukuri</title>
    <link href="https://github.com/lydrainbowcat/tedukuri" />
    <updated>2025-04-14T00:00:00</updated>
    <content type="text">《算法竞赛进阶指南》资源社区</content>
  </entry>
  <entry>
    <id>https://github.com/ophub/amlogic-s9xxx-armbian#1744588800</id>
    <title>https://github.com/ophub/amlogic-s9xxx-armbian</title>
    <link href="https://github.com/ophub/amlogic-s9xxx-armbian" />
    <updated>2025-04-14T00:00:00</updated>
    <content type="text">Support for Armbian in Amlogic, Rockchip and Allwinner boxes. Support a311d, s922x, s905x3, s905x2, s912, s905d, s905x, s905w, s905, s905l, rk3588, rk3568, rk3399, rk3328, h6, etc.</content>
  </entry>
  <entry>
    <id>https://github.com/pyenv/pyenv#1744588800</id>
    <title>https://github.com/pyenv/pyenv</title>
    <link href="https://github.com/pyenv/pyenv" />
    <updated>2025-04-14T00:00:00</updated>
    <content type="text">Simple Python version management</content>
  </entry>
  <entry>
    <id>https://github.com/sidpalas/devops-directive-docker-course#1744588800</id>
    <title>https://github.com/sidpalas/devops-directive-docker-course</title>
    <link href="https://github.com/sidpalas/devops-directive-docker-course" />
    <updated>2025-04-14T00:00:00</updated>
    <content type="text">Companion repo for complete Docker course</content>
  </entry>
  <entry>
    <id>https://github.com/slimm609/checksec#1744588800</id>
    <title>https://github.com/slimm609/checksec</title>
    <link href="https://github.com/slimm609/checksec" />
    <updated>2025-04-14T00:00:00</updated>
    <content type="text">Checksec</content>
  </entry>
</feed>