<?xml version='1.0' encoding='utf-8'?>
<feed xmlns="http://www.w3.org/2005/Atom" xml:lang="en">
  <id>https://aazw.github.io/github-trending-feeds/feeds/roff/daily.atom</id>
  <title>GitHub Trending - roff (daily)</title>
  <link href="https://aazw.github.io/github-trending-feeds/feeds/roff/daily.atom" rel="self" />
  <link href="https://aazw.github.io/github-trending-feeds/" rel="alternate" />
  <icon>https://github.githubassets.com/favicons/favicon.svg</icon>
  <updated>2025-06-02T00:00:00</updated>
  <author>
    <name>aazw</name>
  </author>
  <entry>
    <id>https://github.com/OpenFAST/r-test#1748822400</id>
    <title>https://github.com/OpenFAST/r-test</title>
    <link href="https://github.com/OpenFAST/r-test" />
    <updated>2025-06-02T00:00:00</updated>
    <content type="text">Collection of regression tests for OpenFAST and its modules, which can also be used as example models. This repository is a submodule of the https://github.com/OpenFAST/openfast/ repository.</content>
  </entry>
  <entry>
    <id>https://github.com/TapXWorld/ChinaTextbook#1748822400</id>
    <title>https://github.com/TapXWorld/ChinaTextbook</title>
    <link href="https://github.com/TapXWorld/ChinaTextbook" />
    <updated>2025-06-02T00:00:00</updated>
    <content type="text">所有小初高、大学PDF教材。</content>
  </entry>
  <entry>
    <id>https://github.com/nodenv/node-build#1748822400</id>
    <title>https://github.com/nodenv/node-build</title>
    <link href="https://github.com/nodenv/node-build" />
    <updated>2025-06-02T00:00:00</updated>
    <content type="text">Install NodeJS versions</content>
  </entry>
  <entry>
    <id>https://github.com/pyenv/pyenv#1748822400</id>
    <title>https://github.com/pyenv/pyenv</title>
    <link href="https://github.com/pyenv/pyenv" />
    <updated>2025-06-02T00:00:00</updated>
    <content type="text">Simple Python version management</content>
  </entry>
  <entry>
    <id>https://github.com/sidpalas/devops-directive-docker-course#1748822400</id>
    <title>https://github.com/sidpalas/devops-directive-docker-course</title>
    <link href="https://github.com/sidpalas/devops-directive-docker-course" />
    <updated>2025-06-02T00:00:00</updated>
    <content type="text">Companion repo for complete Docker course</content>
  </entry>
</feed>