<?xml version='1.0' encoding='utf-8'?>
<ns0:feed xmlns:ns0="http://www.w3.org/2005/Atom" xml:lang="en">
  <ns0:id>https://aazw.github.io/github-trending-feeds/feeds/roff/daily.atom</ns0:id>
  <ns0:title>GitHub Trending - roff (daily)</ns0:title>
  <ns0:link href="https://aazw.github.io/github-trending-feeds/feeds/roff/daily.atom" rel="self"/>
  <ns0:link href="https://aazw.github.io/github-trending-feeds/" rel="alternate"/>
  <ns0:icon>https://github.githubassets.com/favicons/favicon.svg</ns0:icon>
  <ns0:updated>2025-12-07T00:00:00</ns0:updated>
  <ns0:author>
    <ns0:name>aazw</ns0:name>
  </ns0:author>
  <ns0:entry>
    <ns0:id>urn:github:AOSC-Dev:aosc-os-abbs:1765065600</ns0:id>
    <ns0:title>AOSC-Dev/aosc-os-abbs</ns0:title>
    <ns0:link href="https://github.com/AOSC-Dev/aosc-os-abbs"/>
    <ns0:updated>2025-12-07T00:00:00</ns0:updated>
    <ns0:content type="html">&lt;div&gt;
&lt;div&gt;&lt;strong&gt;URL:&lt;/strong&gt; &lt;a href="https://github.com/AOSC-Dev/aosc-os-abbs"&gt;https://github.com/AOSC-Dev/aosc-os-abbs&lt;/a&gt;&lt;/div&gt;
&lt;div&gt;&lt;strong&gt;Language:&lt;/strong&gt; roff&lt;/div&gt;
&lt;hr&gt;
&lt;div&gt;ABBS/ACBS tree for AOSC OS package metadata, build configuration, scripts, and patches&lt;/div&gt;
&lt;/div&gt;</ns0:content>
  </ns0:entry>
  <ns0:entry>
    <ns0:id>urn:github:OpenFAST:r-test:1765065600</ns0:id>
    <ns0:title>OpenFAST/r-test</ns0:title>
    <ns0:link href="https://github.com/OpenFAST/r-test"/>
    <ns0:updated>2025-12-07T00:00:00</ns0:updated>
    <ns0:content type="html">&lt;div&gt;
&lt;div&gt;&lt;strong&gt;URL:&lt;/strong&gt; &lt;a href="https://github.com/OpenFAST/r-test"&gt;https://github.com/OpenFAST/r-test&lt;/a&gt;&lt;/div&gt;
&lt;div&gt;&lt;strong&gt;Language:&lt;/strong&gt; roff&lt;/div&gt;
&lt;hr&gt;
&lt;div&gt;Collection of regression tests for OpenFAST and its modules, which can also be used as example models. This repository is a submodule of the https://github.com/OpenFAST/openfast/ repository.&lt;/div&gt;
&lt;/div&gt;</ns0:content>
  </ns0:entry>
  <ns0:entry>
    <ns0:id>urn:github:ophub:amlogic-s9xxx-armbian:1765065600</ns0:id>
    <ns0:title>ophub/amlogic-s9xxx-armbian</ns0:title>
    <ns0:link href="https://github.com/ophub/amlogic-s9xxx-armbian"/>
    <ns0:updated>2025-12-07T00:00:00</ns0:updated>
    <ns0:content type="html">&lt;div&gt;
&lt;div&gt;&lt;strong&gt;URL:&lt;/strong&gt; &lt;a href="https://github.com/ophub/amlogic-s9xxx-armbian"&gt;https://github.com/ophub/amlogic-s9xxx-armbian&lt;/a&gt;&lt;/div&gt;
&lt;div&gt;&lt;strong&gt;Language:&lt;/strong&gt; roff&lt;/div&gt;
&lt;hr&gt;
&lt;div&gt;Support for Armbian in Amlogic, Rockchip and Allwinner boxes. Support a311d, s922x, s905x3, s905x2, s912, s905d, s905x, s905w, s905, s905l, rk3588, rk3568, rk3399, rk3328, h6, etc.&lt;/div&gt;
&lt;/div&gt;</ns0:content>
  </ns0:entry>
  <ns0:entry>
    <ns0:id>urn:github:sidpalas:devops-directive-docker-course:1765065600</ns0:id>
    <ns0:title>sidpalas/devops-directive-docker-course</ns0:title>
    <ns0:link href="https://github.com/sidpalas/devops-directive-docker-course"/>
    <ns0:updated>2025-12-07T00:00:00</ns0:updated>
    <ns0:content type="html">&lt;div&gt;
&lt;div&gt;&lt;strong&gt;URL:&lt;/strong&gt; &lt;a href="https://github.com/sidpalas/devops-directive-docker-course"&gt;https://github.com/sidpalas/devops-directive-docker-course&lt;/a&gt;&lt;/div&gt;
&lt;div&gt;&lt;strong&gt;Language:&lt;/strong&gt; roff&lt;/div&gt;
&lt;hr&gt;
&lt;div&gt;Companion repo for complete Docker course&lt;/div&gt;
&lt;/div&gt;</ns0:content>
  </ns0:entry>
  <ns0:entry>
    <ns0:id>urn:github:terrapkg:packages:1765065600</ns0:id>
    <ns0:title>terrapkg/packages</ns0:title>
    <ns0:link href="https://github.com/terrapkg/packages"/>
    <ns0:updated>2025-12-07T00:00:00</ns0:updated>
    <ns0:content type="html">&lt;div&gt;
&lt;div&gt;&lt;strong&gt;URL:&lt;/strong&gt; &lt;a href="https://github.com/terrapkg/packages"&gt;https://github.com/terrapkg/packages&lt;/a&gt;&lt;/div&gt;
&lt;div&gt;&lt;strong&gt;Language:&lt;/strong&gt; roff&lt;/div&gt;
&lt;hr&gt;
&lt;div&gt;Monorepo for Terra Packages&lt;/div&gt;
&lt;/div&gt;</ns0:content>
  </ns0:entry>
</ns0:feed>