<?xml version='1.0' encoding='utf-8'?>
<feed xmlns="http://www.w3.org/2005/Atom" xml:lang="en">
  <id>https://aazw.github.io/github-trending-feeds/feeds/fortran/weekly.atom</id>
  <title>GitHub Trending - fortran (weekly)</title>
  <link href="https://aazw.github.io/github-trending-feeds/feeds/fortran/weekly.atom" rel="self" />
  <link href="https://aazw.github.io/github-trending-feeds/" rel="alternate" />
  <icon>https://github.githubassets.com/favicons/favicon.svg</icon>
  <updated>2024-12-28T14:26:43+00:00</updated>
  <author>
    <name>aazw</name>
  </author>
  <entry>
    <id>https://github.com/JuliaPackaging/Yggdrasil#1735396003</id>
    <title>https://github.com/JuliaPackaging/Yggdrasil</title>
    <link href="https://github.com/JuliaPackaging/Yggdrasil" />
    <updated>2024-12-28T14:26:43+00:00</updated>
    <content type="text">Collection of builder repositories for BinaryBuilder.jl</content>
  </entry>
  <entry>
    <id>https://github.com/NOAA-GFDL/FMS#1735396003</id>
    <title>https://github.com/NOAA-GFDL/FMS</title>
    <link href="https://github.com/NOAA-GFDL/FMS" />
    <updated>2024-12-28T14:26:43+00:00</updated>
    <content type="text">GFDL's Flexible Modeling System</content>
  </entry>
  <entry>
    <id>https://github.com/GEOS-ESM/MAPL#1735396003</id>
    <title>https://github.com/GEOS-ESM/MAPL</title>
    <link href="https://github.com/GEOS-ESM/MAPL" />
    <updated>2024-12-28T14:26:43+00:00</updated>
    <content type="text">MAPL is a foundation layer of the GEOS architecture, whose original purpose is to supplement the Earth System Modeling Framework (ESMF)</content>
  </entry>
  <entry>
    <id>https://github.com/OpenFAST/openfast#1735396003</id>
    <title>https://github.com/OpenFAST/openfast</title>
    <link href="https://github.com/OpenFAST/openfast" />
    <updated>2024-12-28T14:26:43+00:00</updated>
    <content type="text">Main repository for the NREL-supported OpenFAST whole-turbine and FAST.Farm wind farm simulation codes.</content>
  </entry>
  <entry>
    <id>https://github.com/E3SM-Project/E3SM#1735396003</id>
    <title>https://github.com/E3SM-Project/E3SM</title>
    <link href="https://github.com/E3SM-Project/E3SM" />
    <updated>2024-12-28T14:26:43+00:00</updated>
    <content type="text">Energy Exascale Earth System Model source code. NOTE: use "maint" branches for your work. Head of master is not validated.</content>
  </entry>
</feed>