<?xml version='1.0' encoding='utf-8'?>
<feed xmlns="http://www.w3.org/2005/Atom" xml:lang="en">
  <id>https://aazw.github.io/github-trending-feeds/feeds/fortran/weekly.atom</id>
  <title>GitHub Trending - fortran (weekly)</title>
  <link href="https://aazw.github.io/github-trending-feeds/feeds/fortran/weekly.atom" rel="self" />
  <link href="https://aazw.github.io/github-trending-feeds/" rel="alternate" />
  <icon>https://github.githubassets.com/favicons/favicon.svg</icon>
  <updated>2025-01-06T12:14:58+00:00</updated>
  <author>
    <name>aazw</name>
  </author>
  <entry>
    <id>https://github.com/wrf-model/WRF#1736165698</id>
    <title>https://github.com/wrf-model/WRF</title>
    <link href="https://github.com/wrf-model/WRF" />
    <updated>2025-01-06T12:14:58+00:00</updated>
    <content type="text">The official repository for the Weather Research and Forecasting (WRF) model</content>
  </entry>
  <entry>
    <id>https://github.com/cp2k/cp2k#1736165698</id>
    <title>https://github.com/cp2k/cp2k</title>
    <link href="https://github.com/cp2k/cp2k" />
    <updated>2025-01-06T12:14:58+00:00</updated>
    <content type="text">Quantum chemistry and solid state physics software package</content>
  </entry>
  <entry>
    <id>https://github.com/OpenFAST/openfast#1736165698</id>
    <title>https://github.com/OpenFAST/openfast</title>
    <link href="https://github.com/OpenFAST/openfast" />
    <updated>2025-01-06T12:14:58+00:00</updated>
    <content type="text">Main repository for the NREL-supported OpenFAST whole-turbine and FAST.Farm wind farm simulation codes.</content>
  </entry>
  <entry>
    <id>https://github.com/GEOS-ESM/MAPL#1736165698</id>
    <title>https://github.com/GEOS-ESM/MAPL</title>
    <link href="https://github.com/GEOS-ESM/MAPL" />
    <updated>2025-01-06T12:14:58+00:00</updated>
    <content type="text">MAPL is a foundation layer of the GEOS architecture, whose original purpose is to supplement the Earth System Modeling Framework (ESMF)</content>
  </entry>
  <entry>
    <id>https://github.com/MCSclimate/MCT#1736165698</id>
    <title>https://github.com/MCSclimate/MCT</title>
    <link href="https://github.com/MCSclimate/MCT" />
    <updated>2025-01-06T12:14:58+00:00</updated>
    <content type="text">Model Coupling Tookit</content>
  </entry>
  <entry>
    <id>https://github.com/NGEET/fates#1736165698</id>
    <title>https://github.com/NGEET/fates</title>
    <link href="https://github.com/NGEET/fates" />
    <updated>2025-01-06T12:14:58+00:00</updated>
    <content type="text">repository for the Functionally Assembled Terrestrial Ecosystem Simulator (FATES)</content>
  </entry>
  <entry>
    <id>https://github.com/ROCm/aomp#1736165698</id>
    <title>https://github.com/ROCm/aomp</title>
    <link href="https://github.com/ROCm/aomp" />
    <updated>2025-01-06T12:14:58+00:00</updated>
    <content type="text">AOMP is an open source Clang/LLVM based compiler with added support for the OpenMP® API on Radeon™ GPUs. Use this repository for releases, issues, documentation, packaging, and examples.</content>
  </entry>
  <entry>
    <id>https://github.com/MPAS-Dev/MPAS-Model#1736165698</id>
    <title>https://github.com/MPAS-Dev/MPAS-Model</title>
    <link href="https://github.com/MPAS-Dev/MPAS-Model" />
    <updated>2025-01-06T12:14:58+00:00</updated>
    <content type="text">Repository for MPAS models and shared framework releases.</content>
  </entry>
  <entry>
    <id>https://github.com/Reference-LAPACK/lapack#1736165698</id>
    <title>https://github.com/Reference-LAPACK/lapack</title>
    <link href="https://github.com/Reference-LAPACK/lapack" />
    <updated>2025-01-06T12:14:58+00:00</updated>
    <content type="text">LAPACK development repository</content>
  </entry>
  <entry>
    <id>https://github.com/NOAA-GFDL/FMS#1736165698</id>
    <title>https://github.com/NOAA-GFDL/FMS</title>
    <link href="https://github.com/NOAA-GFDL/FMS" />
    <updated>2025-01-06T12:14:58+00:00</updated>
    <content type="text">GFDL's Flexible Modeling System</content>
  </entry>
</feed>