<?xml version='1.0' encoding='utf-8'?>
<ns0:feed xmlns:ns0="http://www.w3.org/2005/Atom" xml:lang="en">
  <ns0:id>https://aazw.github.io/github-trending-feeds/feeds/fortran/weekly.atom</ns0:id>
  <ns0:title>GitHub Trending - fortran (weekly)</ns0:title>
  <ns0:link href="https://aazw.github.io/github-trending-feeds/feeds/fortran/weekly.atom" rel="self"/>
  <ns0:link href="https://aazw.github.io/github-trending-feeds/" rel="alternate"/>
  <ns0:icon>https://github.githubassets.com/favicons/favicon.svg</ns0:icon>
  <ns0:updated>2025-10-13T00:00:00</ns0:updated>
  <ns0:author>
    <ns0:name>aazw</ns0:name>
  </ns0:author>
  <ns0:entry>
    <ns0:id>urn:github:E3SM-Project:E3SM:1760313600</ns0:id>
    <ns0:title>E3SM-Project/E3SM</ns0:title>
    <ns0:link href="https://github.com/E3SM-Project/E3SM"/>
    <ns0:updated>2025-10-13T00:00:00</ns0:updated>
    <ns0:content type="html">&lt;div&gt;
&lt;div&gt;&lt;strong&gt;URL:&lt;/strong&gt; &lt;a href="https://github.com/E3SM-Project/E3SM"&gt;https://github.com/E3SM-Project/E3SM&lt;/a&gt;&lt;/div&gt;
&lt;div&gt;&lt;strong&gt;Language:&lt;/strong&gt; fortran&lt;/div&gt;
&lt;hr&gt;
&lt;div&gt;Energy Exascale Earth System Model source code. NOTE: use "maint" branches for your work. Head of master is not validated.&lt;/div&gt;
&lt;/div&gt;</ns0:content>
  </ns0:entry>
  <ns0:entry>
    <ns0:id>urn:github:GEOS-ESM:MAPL:1760313600</ns0:id>
    <ns0:title>GEOS-ESM/MAPL</ns0:title>
    <ns0:link href="https://github.com/GEOS-ESM/MAPL"/>
    <ns0:updated>2025-10-13T00:00:00</ns0:updated>
    <ns0:content type="html">&lt;div&gt;
&lt;div&gt;&lt;strong&gt;URL:&lt;/strong&gt; &lt;a href="https://github.com/GEOS-ESM/MAPL"&gt;https://github.com/GEOS-ESM/MAPL&lt;/a&gt;&lt;/div&gt;
&lt;div&gt;&lt;strong&gt;Language:&lt;/strong&gt; fortran&lt;/div&gt;
&lt;hr&gt;
&lt;div&gt;MAPL is a foundation layer of the GEOS architecture, whose original purpose is to supplement the Earth System Modeling Framework (ESMF)&lt;/div&gt;
&lt;/div&gt;</ns0:content>
  </ns0:entry>
  <ns0:entry>
    <ns0:id>urn:github:OpenFAST:openfast:1760313600</ns0:id>
    <ns0:title>OpenFAST/openfast</ns0:title>
    <ns0:link href="https://github.com/OpenFAST/openfast"/>
    <ns0:updated>2025-10-13T00:00:00</ns0:updated>
    <ns0:content type="html">&lt;div&gt;
&lt;div&gt;&lt;strong&gt;URL:&lt;/strong&gt; &lt;a href="https://github.com/OpenFAST/openfast"&gt;https://github.com/OpenFAST/openfast&lt;/a&gt;&lt;/div&gt;
&lt;div&gt;&lt;strong&gt;Language:&lt;/strong&gt; fortran&lt;/div&gt;
&lt;hr&gt;
&lt;div&gt;Main repository for the NREL-supported OpenFAST whole-turbine and FAST.Farm wind farm simulation codes.&lt;/div&gt;
&lt;/div&gt;</ns0:content>
  </ns0:entry>
  <ns0:entry>
    <ns0:id>urn:github:Reference-LAPACK:lapack:1760313600</ns0:id>
    <ns0:title>Reference-LAPACK/lapack</ns0:title>
    <ns0:link href="https://github.com/Reference-LAPACK/lapack"/>
    <ns0:updated>2025-10-13T00:00:00</ns0:updated>
    <ns0:content type="html">&lt;div&gt;
&lt;div&gt;&lt;strong&gt;URL:&lt;/strong&gt; &lt;a href="https://github.com/Reference-LAPACK/lapack"&gt;https://github.com/Reference-LAPACK/lapack&lt;/a&gt;&lt;/div&gt;
&lt;div&gt;&lt;strong&gt;Language:&lt;/strong&gt; fortran&lt;/div&gt;
&lt;hr&gt;
&lt;div&gt;LAPACK development repository&lt;/div&gt;
&lt;/div&gt;</ns0:content>
  </ns0:entry>
  <ns0:entry>
    <ns0:id>urn:github:cp2k:cp2k:1760313600</ns0:id>
    <ns0:title>cp2k/cp2k</ns0:title>
    <ns0:link href="https://github.com/cp2k/cp2k"/>
    <ns0:updated>2025-10-13T00:00:00</ns0:updated>
    <ns0:content type="html">&lt;div&gt;
&lt;div&gt;&lt;strong&gt;URL:&lt;/strong&gt; &lt;a href="https://github.com/cp2k/cp2k"&gt;https://github.com/cp2k/cp2k&lt;/a&gt;&lt;/div&gt;
&lt;div&gt;&lt;strong&gt;Language:&lt;/strong&gt; fortran&lt;/div&gt;
&lt;hr&gt;
&lt;div&gt;Quantum chemistry and solid state physics software package&lt;/div&gt;
&lt;/div&gt;</ns0:content>
  </ns0:entry>
  <ns0:entry>
    <ns0:id>urn:github:ecmwf:fckit:1760313600</ns0:id>
    <ns0:title>ecmwf/fckit</ns0:title>
    <ns0:link href="https://github.com/ecmwf/fckit"/>
    <ns0:updated>2025-10-13T00:00:00</ns0:updated>
    <ns0:content type="html">&lt;div&gt;
&lt;div&gt;&lt;strong&gt;URL:&lt;/strong&gt; &lt;a href="https://github.com/ecmwf/fckit"&gt;https://github.com/ecmwf/fckit&lt;/a&gt;&lt;/div&gt;
&lt;div&gt;&lt;strong&gt;Language:&lt;/strong&gt; fortran&lt;/div&gt;
&lt;hr&gt;
&lt;div&gt;A Fortran toolkit for interoperating Fortran with C/C++&lt;/div&gt;
&lt;/div&gt;</ns0:content>
  </ns0:entry>
  <ns0:entry>
    <ns0:id>urn:github:firemodels:fds:1760313600</ns0:id>
    <ns0:title>firemodels/fds</ns0:title>
    <ns0:link href="https://github.com/firemodels/fds"/>
    <ns0:updated>2025-10-13T00:00:00</ns0:updated>
    <ns0:content type="html">&lt;div&gt;
&lt;div&gt;&lt;strong&gt;URL:&lt;/strong&gt; &lt;a href="https://github.com/firemodels/fds"&gt;https://github.com/firemodels/fds&lt;/a&gt;&lt;/div&gt;
&lt;div&gt;&lt;strong&gt;Language:&lt;/strong&gt; fortran&lt;/div&gt;
&lt;hr&gt;
&lt;div&gt;Fire Dynamics Simulator&lt;/div&gt;
&lt;/div&gt;</ns0:content>
  </ns0:entry>
  <ns0:entry>
    <ns0:id>urn:github:grimme-lab:xtb:1760313600</ns0:id>
    <ns0:title>grimme-lab/xtb</ns0:title>
    <ns0:link href="https://github.com/grimme-lab/xtb"/>
    <ns0:updated>2025-10-13T00:00:00</ns0:updated>
    <ns0:content type="html">&lt;div&gt;
&lt;div&gt;&lt;strong&gt;URL:&lt;/strong&gt; &lt;a href="https://github.com/grimme-lab/xtb"&gt;https://github.com/grimme-lab/xtb&lt;/a&gt;&lt;/div&gt;
&lt;div&gt;&lt;strong&gt;Language:&lt;/strong&gt; fortran&lt;/div&gt;
&lt;hr&gt;
&lt;div&gt;Semiempirical Extended Tight-Binding Program Package&lt;/div&gt;
&lt;/div&gt;</ns0:content>
  </ns0:entry>
  <ns0:entry>
    <ns0:id>urn:github:wrf-model:WRF:1760313600</ns0:id>
    <ns0:title>wrf-model/WRF</ns0:title>
    <ns0:link href="https://github.com/wrf-model/WRF"/>
    <ns0:updated>2025-10-13T00:00:00</ns0:updated>
    <ns0:content type="html">&lt;div&gt;
&lt;div&gt;&lt;strong&gt;URL:&lt;/strong&gt; &lt;a href="https://github.com/wrf-model/WRF"&gt;https://github.com/wrf-model/WRF&lt;/a&gt;&lt;/div&gt;
&lt;div&gt;&lt;strong&gt;Language:&lt;/strong&gt; fortran&lt;/div&gt;
&lt;hr&gt;
&lt;div&gt;The official repository for the Weather Research and Forecasting (WRF) model&lt;/div&gt;
&lt;/div&gt;</ns0:content>
  </ns0:entry>
</ns0:feed>